<configuration>
    <input>
       <net-file value="laneroad.net.xml" />
       <route-files value="laneroad.rou.xml" />
    </input>
	<time>
        <begin value="0"/>
        <end value="3600"/>
        <step-length value="0.1" />
    </time>
</configuration>