<?xml version="1.0" encoding="UTF-8"?>

<!-- generated on Mon 03 Dec 2018 10:28:42 PM PST by Netedit Version dev-SVN-rUNKNOWN
<?xml version="1.0" encoding="UTF-8"?>

<configuration xmlns:xsi="http://www.w3.org/2001/XMLSchema-instance" xsi:noNamespaceSchemaLocation="http://sumo.dlr.de/xsd/netedit.exeConfiguration.xsd">

    <input>
        <sumo-net-file value="/home/jean/Projects/VENTOS_SUMO/demo/roadtest/laneroad.net.xml"/>
    </input>

    <output>
        <output-file value="/home/jean/Projects/VENTOS_SUMO/demo/roadtest/laneroad.net.xml"/>
    </output>

    <processing>
        <no-internal-links value="true"/>
        <no-turnarounds value="true"/>
        <offset.disable-normalization value="true"/>
        <lefthand value="false"/>
        <junctions.corner-detail value="0"/>
    </processing>

</configuration>
-->

<net version="0.27" xmlns:xsi="http://www.w3.org/2001/XMLSchema-instance" xsi:noNamespaceSchemaLocation="http://sumo.dlr.de/xsd/net_file.xsd">

    <location netOffset="0.00,0.00" convBoundary="-280.91,0.00,5000.00,1.41" origBoundary="-10000000000.00,-10000000000.00,10000000000.00,10000000000.00" projParameter="!"/>

    <edge id="end0" from="gneJ0" to="end0" priority="1">
        <lane id="end0_0" index="0" speed="13.89" length="280.91" shape="-280.91,-0.24 -0.15,-1.65"/>
    </edge>
    <edge id="end1" from="end0" to="end1" priority="1">
        <lane id="end1_0" index="0" speed="13.89" length="5000.00" shape="0.15,-1.65 5000.00,-1.65"/>
    </edge>

    <junction id="end0" type="unregulated" x="0.00" y="0.00" incLanes="end0_0" intLanes="" shape="0.15,-0.05 0.15,-3.25 -0.16,-3.25 -0.15,-0.05"/>
    <junction id="end1" type="unregulated" x="5000.00" y="0.00" incLanes="end1_0" intLanes="" shape="5000.00,-3.25 5000.00,-0.05"/>
    <junction id="gneJ0" type="unregulated" x="-280.91" y="1.41" incLanes="" intLanes="" shape="-280.91,1.36 -280.92,-1.84"/>

    <connection from="end0" to="end1" fromLane="0" toLane="0" dir="s" state="M"/>

</net>
